 6

      C        -0.670892         0.000000          0.000000
      C         0.670892         0.000000          0.000000
      H         1.240883         0.922604          0.000000
      H        -1.240883         0.922604          0.000000
      H         1.240883        -0.922604          0.000000
      H        -1.240883        -0.922604          0.000000
